Circuit: * C:\Users\DELL\OneDrive\Documente\LTspiceXVII\etaj2_.asc

WARNING: Less than two connections to node VIN.  This node is used by V3.
Direct Newton iteration for .op point succeeded.
N-Period=1
Fourier components of V(out_tj)
DC component:-0.0226058

Harmonic	Frequency	 Fourier 	Normalized	 Phase  	Normalized
 Number 	  [Hz]   	Component	 Component	[degree]	Phase [deg]
    1   	1.000e+04	5.353e-02	1.000e+00	 -107.80°	    0.00°
    2   	2.000e+04	4.422e-06	8.262e-05	  -96.06°	   11.74°
    3   	3.000e+04	5.571e-06	1.041e-04	  -69.45°	   38.35°
    4   	4.000e+04	6.775e-06	1.266e-04	  -80.60°	   27.20°
    5   	5.000e+04	5.441e-06	1.016e-04	  -91.00°	   16.80°
    6   	6.000e+04	4.301e-06	8.034e-05	  -70.88°	   36.92°
    7   	7.000e+04	5.856e-06	1.094e-04	  -59.81°	   47.99°
    8   	8.000e+04	6.264e-06	1.170e-04	  -71.08°	   36.72°
    9   	9.000e+04	4.807e-06	8.981e-05	  -75.69°	   32.11°
   10   	1.000e+05	4.380e-06	8.182e-05	  -56.20°	   51.60°
Total Harmonic Distortion: 0.030146%(0.076518%)


N-Period=1
Fourier components of V(out_tb)
DC component:-0.0135329

Harmonic	Frequency	 Fourier 	Normalized	 Phase  	Normalized
 Number 	  [Hz]   	Component	 Component	[degree]	Phase [deg]
    1   	1.000e+04	6.702e-02	1.000e+00	  162.21°	    0.00°
    2   	2.000e+04	7.870e-06	1.174e-04	   92.39°	  -69.82°
    3   	3.000e+04	5.669e-06	8.459e-05	   17.66°	 -144.55°
    4   	4.000e+04	2.991e-06	4.463e-05	 -111.64°	 -273.85°
    5   	5.000e+04	6.959e-06	1.038e-04	  153.19°	   -9.01°
    6   	6.000e+04	6.875e-06	1.026e-04	   91.69°	  -70.52°
    7   	7.000e+04	4.169e-06	6.220e-05	   14.25°	 -147.96°
    8   	8.000e+04	2.735e-06	4.081e-05	 -128.58°	 -290.79°
    9   	9.000e+04	6.258e-06	9.337e-05	  148.86°	  -13.35°
   10   	1.000e+05	5.567e-06	8.306e-05	   93.45°	  -68.75°
Total Harmonic Distortion: 0.025572%(0.063720%)


N-Period=1
Fourier components of V(out)
DC component:0.00560522

Harmonic	Frequency	 Fourier 	Normalized	 Phase  	Normalized
 Number 	  [Hz]   	Component	 Component	[degree]	Phase [deg]
    1   	1.000e+04	5.352e-02	1.000e+00	   72.20°	    0.00°
    2   	2.000e+04	4.423e-06	8.264e-05	   83.93°	   11.74°
    3   	3.000e+04	5.574e-06	1.041e-04	  110.51°	   38.31°
    4   	4.000e+04	6.775e-06	1.266e-04	   99.40°	   27.20°
    5   	5.000e+04	5.440e-06	1.016e-04	   89.00°	   16.81°
    6   	6.000e+04	4.299e-06	8.033e-05	  109.12°	   36.93°
    7   	7.000e+04	5.856e-06	1.094e-04	  120.20°	   48.01°
    8   	8.000e+04	6.264e-06	1.170e-04	  108.93°	   36.73°
    9   	9.000e+04	4.806e-06	8.980e-05	  104.30°	   32.11°
   10   	1.000e+05	4.378e-06	8.180e-05	  123.80°	   51.61°
Total Harmonic Distortion: 0.030149%(0.076518%)





Date: Thu Jan 11 09:49:14 2024
Total elapsed time: 0.586 seconds.

tnom = 27
temp = 27
method = modified trap
totiter = 2171
traniter = 2166
tranpoints = 1083
accept = 1053
rejected = 30
matrix size = 29
fillins = 39
solver = Normal
Thread vector: 86.3/30.0[3] 8.6/7.4[3] 10.1/6.5[3] 0.7/7.6[1]  2592/500
Matrix Compiler1: 3.60 KB object code size  5.7/3.3/[1.0]
Matrix Compiler2: 3.80 KB object code size  2.6/3.6/[0.8]

