Circuit: * C:\Users\DELL\OneDrive\Documente\LTspiceXVII\etaj4_.asc

Direct Newton iteration for .op point succeeded.
N-Period=1
Fourier components of V(oa2)
DC component:0.147018

Harmonic	Frequency	 Fourier 	Normalized	 Phase  	Normalized
 Number 	  [Hz]   	Component	 Component	[degree]	Phase [deg]
    1   	1.000e+04	7.220e-03	1.000e+00	  -70.40°	    0.00°
    2   	2.000e+04	5.288e-03	7.324e-01	 -116.67°	  -46.27°
    3   	3.000e+04	3.723e-03	5.156e-01	 -148.73°	  -78.33°
    4   	4.000e+04	2.285e-03	3.165e-01	 -164.75°	  -94.35°
    5   	5.000e+04	1.650e-03	2.285e-01	 -161.64°	  -91.24°
Total Harmonic Distortion: 97.705502%(110.140774%)



Date: Thu Jan 11 09:59:17 2024
Total elapsed time: 1.011 seconds.

tnom = 27
temp = 27
method = modified trap
totiter = 41580
traniter = 41558
tranpoints = 17812
accept = 12919
rejected = 4893
matrix size = 28
fillins = 31
solver = Normal
Thread vector: 9.7/6.1[2] 1.8/3.5[1] 1.5/3.2[1] 0.2/1.8[1]  2592/500
Matrix Compiler1: 2.94 KB object code size  0.7/0.4/[0.4]
Matrix Compiler2: off  [0.4]/0.5/0.4

