Circuit: * C:\Users\DELL\OneDrive\Documente\LTspiceXVII\ETAJ1.asc

Direct Newton iteration for .op point succeeded.
Semiconductor Device Operating Points:
                        --- Diodes ---
Name:    d:u1:2      d:u1:8      d:u1:1      d:u1:7      d:u1:4
Model:    u1:bb      u1:ed2       u1:aa      u1:bias     u1:bias
Id:     -1.08e-17    6.99e-16   -2.69e-07   -7.00e-07   -7.00e-07
Vd:     -1.08e-05    6.99e-04   -1.08e-05    3.10e-02    3.04e-02
Req:     1.00e-12    1.00e-12    2.50e-02    2.00e-05    2.00e-05
CAP:     0.00e+00    0.00e+00    0.00e+00    0.00e+00    0.00e+00

Name:    d:u1:3      d:u1:6      d:u1:5      d:u1:22     d:u1:21
Model:    u1:iq       u1:x1       u1:x1      u1:esd      u1:esd
Id:      3.95e-07    2.85e-06    2.59e-06   -1.50e-14   -1.50e-14
Vd:      3.00e-02   -1.50e-02   -1.50e-02   -1.50e-02   -1.50e-02
Req:     1.00e-03    1.00e+03    1.00e+03    1.00e-12    1.00e-12
CAP:     0.00e+00    0.00e+00    0.00e+00    0.00e+00    0.00e+00



Date: Wed Jan 17 18:55:33 2024
Total elapsed time: 0.255 seconds.

tnom = 27
temp = 27
method = trap
totiter = 13
traniter = 0
tranpoints = 0
accept = 0
rejected = 0
matrix size = 14
fillins = 11
solver = Normal
Matrix Compiler1: 2.64 KB object code size
Matrix Compiler2: 1.67 KB object code size
